LAMMPS (29 Aug 2024 - Update 2)
dimension 3

units metal
boundary p p p
atom_style atomic
neighbor 2 bin
neigh_modify	one 1000

lattice fcc 3.52
Lattice spacing in x,y,z = 3.52 3.52 3.52

region  box block -4 4 -4 4 -4 4
create_box 1 box
Created orthogonal box = (-14.08 -14.08 -14.08) to (14.08 14.08 14.08)

read_dump interm.atom 1 x y z box yes add yes format native
Adding 'type' field to requested per-atom fields
Scanning dump file ...
Reading snapshot from dump file ...
  orthogonal box = (-14.08 -14.08 -14.08) to (14.08 14.08 14.08)
  0 atoms before read
  2048 atoms in snapshot
  0 atoms purged
  0 atoms replaced
  0 atoms trimmed
  2048 atoms added
  2048 atoms after read

mass 1 58.69

pair_style   eam/alloy
pair_coeff   * * Ni_v6_2.0_LKBeland2016.eam Ni

fix 1 all nvt temp 10.0 2000.0 $(250.0*dt)
fix 1 all nvt temp 10.0 2000.0 0.25

timestep    0.001
thermo 200
thermo_modify lost ignore

dump 	1 all xyz 25 out.xyz

#dump 	2 	all image 50 image.*.jpg type type #		zoom 1.0 adiam 1.5

#dump    3   all movie 25 movie.mpg type type #		zoom 1.0 adiam 1.5

run 10000
Step          Temp          E_pair         E_mol          TotEng         Press
1   0             -9097.1291      0             -9097.1291      3147.3248
Averages over the last 26 of 52 rows, steps 5200 to 10001:
Temp E_pair E_mol TotEng Press
1530.85 -8661.75 0 -8256.69 70377.6
Loop time of 8.72505 on 8 procs for 10000 steps with 2048 atoms
