LAMMPS (29 Aug 2024 - Update 2)
dimension 3

units metal
boundary p p p
atom_style atomic
neighbor 2 bin
neigh_modify	one 1000

region box block -14 14 -10 10 -10 10
create_box 3 box
Created orthogonal box = (-14 -10 -10) to (14 10 10)

lattice fcc 3.52
Lattice spacing in x,y,z = 3.52 3.52 3.52

region  nickel block -10 -0.5 -10 10 -10 10
create_atoms 1 region nickel
Created 423 atoms

lattice bcc 2.87
Lattice spacing in x,y,z = 2.87 2.87 2.87

region chromium block 0 10 -10 10 -10 10
create_atoms 2 region chromium
Created 425 atoms

mass 1 58.69
mass 2 52.0
mass 3 50

pair_style  meam
pair_coeff   * * library.meam Ni Cr NiCr.meam Ni Ni Cr
Reading MEAM library file library.meam with DATE: 2012-06-29

fix 1 all npt temp 10.0 1500.0 $(100.0*dt) iso 0 0 $(10000.0*dt)
fix 1 all npt temp 10.0 1500.0 0.10000000000000000555 iso 0 0 $(10000.0*dt)
fix 1 all npt temp 10.0 1500.0 0.10000000000000000555 iso 0 0 10

timestep    0.005
thermo 200
thermo_modify lost ignore

dump 	1 all xyz 25 out.xyz

#dump 	2 	all image 50 image.*.jpg type type #		zoom 1.0 adiam 1.5

#dump    3   all movie 25 movie.mpg type type #		zoom 1.0 adiam 1.5

run 10000
Step          Temp          E_pair         E_mol          TotEng         Press          Volume
0   0             -3453.9066      0             -3453.9066     -64066.671      11200
Averages over the last 26 of 51 rows, steps 5000 to 10000:
Temp E_pair E_mol TotEng Press Volume
1119.06 -3551.77 0 -3429.26 -1919.42 9993.57
Loop time of 29.217 on 8 procs for 10000 steps with 848 atoms

lattice hcp 0.9
Lattice spacing in x,y,z = 0.9 1.5588457 1.4696938

region  ni-slab block INF -12 INF INF INF INF
region  cr-slab block 12 INF INF INF INF INF

group   ni-slab region ni-slab
97 atoms in group ni-slab
group   cr-slab region cr-slab
70 atoms in group cr-slab

set group ni-slab type 3
Setting atom values ...
  97 settings made for type
set group cr-slab type 3
Setting atom values ...
  70 settings made for type

fix 4 ni-slab rigid/nve single
  1 rigid bodies with 97 atoms

velocity ni-slab set 10 0 0 sum yes
velocity cr-slab set -10 0 0 sum yes

fix 1 all npt temp 1500.0 10.0 $(100.0*dt) iso 0 0 $(1000.0*dt)
fix 1 all npt temp 1500.0 10.0 0.5 iso 0 0 $(1000.0*dt)
fix 1 all npt temp 1500.0 10.0 0.5 iso 0 0 5
fix		2 ni-slab setforce 0.0 0.0 0.0
fix		3 cr-slab setforce 0.0 0.0 0.0

run 10000
ERROR: Rigid fixes must come before any box changing fix (src/RIGID/fix_rigid.cpp:739)
Last command: run 10000
